Circuit: * C:\Users\ncard\OneDrive - University of Ottawa\University Archive\Year 5\Winter Term\Microwave Circuits\ELG4115\Draft1.asc

Direct Newton iteration for .op point succeeded.

Date: Fri Sep 22 10:47:29 2023
Total elapsed time: 0.048 seconds.

tnom = 27
temp = 27
method = trap
totiter = 3
traniter = 0
tranpoints = 0
accept = 0
rejected = 0
matrix size = 7
fillins = 1
solver = Normal
Matrix Compiler1: 250 bytes object code size
Matrix Compiler2: 467 bytes object code size
